! Subset of available target linecodes, which are closest to the original ones in terms of positive sequence impedance
! -------------------------------------------------------------------------------------------------------------------------------------------------------------------------------------------------
! original name: BS 5467 1997 table 10 25 (50 Hz)
New LineCode.LC2 nphases=3 Units=km
~ Rmatrix=(1.9185860813705298 0.9592965406852648 0.9592965406852648 | 0.9592965406852648 1.9185760813705297 0.9592965406852648 | 0.9592965406852648 0.9592965406852648 1.9185870813705295)
~ Xmatrix=(1.47953047158027 0.739778735790135 0.739778735790135 | 0.739778735790135 1.4794974715802698 0.739778735790135 | 0.739778735790135 0.739778735790135 1.47954347158027)
~ Cmatrix=(0.0 0.0 0.0 | 0.0 0.0 0.0 | 0.0 0.0 0.0)

! original name: BS 6480 1988 table 17 Cu 120 (50 Hz)
New LineCode.LC5 nphases=3 Units=km
~ Rmatrix=(1.5118039220079 0.75590446100395 0.75590446100395 | 0.75590446100395 1.5118049220079 0.75590446100395 | 0.75590446100395 0.75590446100395 1.5118109220079)
~ Xmatrix=(0.796938780704967 0.3984688903524835 0.3984688903524835 | 0.3984688903524835 0.796937780704967 0.3984688903524835 | 0.3984688903524835 0.3984688903524835 0.796937780704967)
~ Cmatrix=(0.0 0.0 0.0 | 0.0 0.0 0.0 | 0.0 0.0 0.0)

! original name: BS 6480 1988 table 17 Cu 16 (50 Hz)
New LineCode.LC6 nphases=3 Units=km
~ Rmatrix=(4.550221665638708 2.275111332819354 2.275111332819354 | 2.275111332819354 4.550221665638708 2.275111332819354 | 2.275111332819354 2.275111332819354 4.550222665638708)
~ Xmatrix=(2.093147633045342 1.046576816522671 1.046576816522671 | 1.046576816522671 2.0931486330453417 1.046576816522671 | 1.046576816522671 1.046576816522671 2.093150633045342)
~ Cmatrix=(0.0 0.0 0.0 | 0.0 0.0 0.0 | 0.0 0.0 0.0)

! original name: Waveform 4-core 185 IEC 60287 (50 Hz)
New LineCode.LC7 nphases=3 Units=km
~ Rmatrix=(0.6433998192124523 0.32169990960622613 0.32169990960622613 | 0.32169990960622613 0.6433998192124523 0.32169990960622613 | 0.32169990960622613 0.32169990960622613 0.6433998192124523)
~ Xmatrix=(0.23975956123052877 0.11987978061526439 0.11987978061526439 | 0.11987978061526439 0.23975956123052877 0.11987978061526439 | 0.11987978061526439 0.11987978061526439 0.23975956123052877)
~ Cmatrix=(0.0 0.0 0.0 | 0.0 0.0 0.0 | 0.0 0.0 0.0)

! original name: Waveform 4-core 95 IEC 60287 (50 Hz)
New LineCode.LC9 nphases=3 Units=km
~ Rmatrix=(1.1621048332819182 0.5810524166409591 0.5810524166409591 | 0.5810524166409591 1.1621048332819182 0.5810524166409591 | 0.5810524166409591 0.5810524166409591 1.1621048332819182)
~ Xmatrix=(0.3951424621758688 0.1975712310879344 0.1975712310879344 | 0.1975712310879344 0.3951424621758688 0.1975712310879344 | 0.1975712310879344 0.1975712310879344 0.3951424621758688)
~ Cmatrix=(0.0 0.0 0.0 | 0.0 0.0 0.0 | 0.0 0.0 0.0)
! -------------------------------------------------------------------------------------------------------------------------------------------------------------------------------------------------